<additional>
	<inductionLoop id="l1_1" lane="l1_0" pos="0" freq="30" file="cross.out"/>
	<inductionLoop id="l1_2" lane="l1_0" pos="100" freq="30" file="cross.out"/>
	<inductionLoop id="l1_3" lane="l1_0" pos="200" freq="30" file="cross.out"/>
	<inductionLoop id="l1_4" lane="l1_0" pos="300" freq="30" file="cross.out"/>
	<inductionLoop id="l1_5" lane="l1_0" pos="400" freq="30" file="cross.out"/>
	<inductionLoop id="l1_6" lane="l1_0" pos="500" freq="30" file="cross.out"/>
	<inductionLoop id="l1_7" lane="l1_0" pos="600" freq="30" file="cross.out"/>
	<inductionLoop id="l1_8" lane="l1_0" pos="700" freq="30" file="cross.out"/>
	<inductionLoop id="l1_9" lane="l1_0" pos="800" freq="30" file="cross.out"/>
	<inductionLoop id="l1_10" lane="l1_0" pos="900" freq="30" file="cross.out"/>
	<inductionLoop id="l1_11" lane="l1_0" pos="1000" freq="30" file="cross.out"/>
	<inductionLoop id="l1_12" lane="l1_0" pos="1100" freq="30" file="cross.out"/>
	<inductionLoop id="l1_13" lane="l1_0" pos="1200" freq="30" file="cross.out"/>
	<inductionLoop id="l1_14" lane="l1_0" pos="1300" freq="30" file="cross.out"/>
	<inductionLoop id="l1_15" lane="l1_0" pos="1400" freq="30" file="cross.out"/>
	<inductionLoop id="l1_16" lane="l1_0" pos="1500" freq="30" file="cross.out"/>
	<inductionLoop id="l1_17" lane="l1_0" pos="1600" freq="30" file="cross.out"/>
	<inductionLoop id="l1_18" lane="l1_0" pos="1700" freq="30" file="cross.out"/>
	<inductionLoop id="l1_19" lane="l1_0" pos="1800" freq="30" file="cross.out"/>
	<inductionLoop id="l1_20" lane="l1_0" pos="1900" freq="30" file="cross.out"/>
	<inductionLoop id="l1_21" lane="l1_0" pos="2000" freq="30" file="cross.out"/>
	<inductionLoop id="l1_22" lane="l1_0" pos="2100" freq="30" file="cross.out"/>
	<inductionLoop id="l1_23" lane="l1_0" pos="2200" freq="30" file="cross.out"/>
	<inductionLoop id="l1_24" lane="l1_0" pos="2300" freq="30" file="cross.out"/>
	<inductionLoop id="l1_25" lane="l1_0" pos="2400" freq="30" file="cross.out"/>
	<inductionLoop id="l1_26" lane="l1_0" pos="2500" freq="30" file="cross.out"/>
	<inductionLoop id="l1_27" lane="l1_0" pos="2600" freq="30" file="cross.out"/>
	<inductionLoop id="l1_28" lane="l1_0" pos="2700" freq="30" file="cross.out"/>
	<inductionLoop id="l1_29" lane="l1_0" pos="2800" freq="30" file="cross.out"/>
	<inductionLoop id="l1_30" lane="l1_0" pos="2900" freq="30" file="cross.out"/>
	<inductionLoop id="l1_31" lane="l1_0" pos="3000" freq="30" file="cross.out"/>
	<inductionLoop id="l1_32" lane="l1_0" pos="3100" freq="30" file="cross.out"/>
	<inductionLoop id="l1_33" lane="l1_0" pos="3200" freq="30" file="cross.out"/>
	<inductionLoop id="l1_34" lane="l1_0" pos="3300" freq="30" file="cross.out"/>
	<inductionLoop id="l1_35" lane="l1_0" pos="3400" freq="30" file="cross.out"/>
	<inductionLoop id="l1_36" lane="l1_0" pos="3500" freq="30" file="cross.out"/>
	<inductionLoop id="l1_37" lane="l1_0" pos="3600" freq="30" file="cross.out"/>
	<inductionLoop id="l1_38" lane="l1_0" pos="3700" freq="30" file="cross.out"/>
	<inductionLoop id="l1_39" lane="l1_0" pos="3800" freq="30" file="cross.out"/>
	<inductionLoop id="l1_40" lane="l1_0" pos="3900" freq="30" file="cross.out"/>
	<inductionLoop id="l1_41" lane="l1_0" pos="4000" freq="30" file="cross.out"/>
	<inductionLoop id="l1_42" lane="l1_0" pos="4100" freq="30" file="cross.out"/>
	<inductionLoop id="l1_43" lane="l1_0" pos="4200" freq="30" file="cross.out"/>
	<inductionLoop id="l1_44" lane="l1_0" pos="4300" freq="30" file="cross.out"/>
	<inductionLoop id="l1_45" lane="l1_0" pos="4400" freq="30" file="cross.out"/>
	<inductionLoop id="l1_46" lane="l1_0" pos="4500" freq="30" file="cross.out"/>
	<inductionLoop id="l1_47" lane="l1_0" pos="4600" freq="30" file="cross.out"/>
	<inductionLoop id="l1_48" lane="l1_0" pos="4700" freq="30" file="cross.out"/>
	<inductionLoop id="l1_49" lane="l1_0" pos="4800" freq="30" file="cross.out"/>
	<inductionLoop id="l1_50" lane="l1_0" pos="4900" freq="30" file="cross.out"/>
	<inductionLoop id="l2_01" lane="l2_0" pos="0" freq="30" file="cross.out"/>
	<inductionLoop id="l2_11" lane="l2_1" pos="0" freq="30" file="cross.out"/>
	<inductionLoop id="l2_02" lane="l2_0" pos="100" freq="30" file="cross.out"/>
	<inductionLoop id="l2_12" lane="l2_1" pos="100" freq="30" file="cross.out"/>
	<inductionLoop id="l2_03" lane="l2_0" pos="200" freq="30" file="cross.out"/>
	<inductionLoop id="l2_13" lane="l2_1" pos="200" freq="30" file="cross.out"/>
	<inductionLoop id="l3_1" lane="l3_0" pos="0" freq="30" file="cross.out"/>
	<inductionLoop id="l3_2" lane="l3_0" pos="100" freq="30" file="cross.out"/>
	<inductionLoop id="l3_3" lane="l3_0" pos="200" freq="30" file="cross.out"/>
	<inductionLoop id="l3_4" lane="l3_0" pos="300" freq="30" file="cross.out"/>
	<inductionLoop id="l3_5" lane="l3_0" pos="400" freq="30" file="cross.out"/>
	<inductionLoop id="l3_6" lane="l3_0" pos="500" freq="30" file="cross.out"/>
	<inductionLoop id="l3_7" lane="l3_0" pos="600" freq="30" file="cross.out"/>
	<inductionLoop id="l3_8" lane="l3_0" pos="700" freq="30" file="cross.out"/>
	<inductionLoop id="l3_9" lane="l3_0" pos="800" freq="30" file="cross.out"/>
	<inductionLoop id="l3_10" lane="l3_0" pos="900" freq="30" file="cross.out"/>
	<inductionLoop id="l3_11" lane="l3_0" pos="1000" freq="30" file="cross.out"/>
	<inductionLoop id="l3_12" lane="l3_0" pos="1100" freq="30" file="cross.out"/>
	<inductionLoop id="l3_13" lane="l3_0" pos="1200" freq="30" file="cross.out"/>
	<inductionLoop id="l3_14" lane="l3_0" pos="1300" freq="30" file="cross.out"/>
	<inductionLoop id="l3_15" lane="l3_0" pos="1400" freq="30" file="cross.out"/>
	<inductionLoop id="l3_16" lane="l3_0" pos="1500" freq="30" file="cross.out"/>
	<inductionLoop id="l3_17" lane="l3_0" pos="1600" freq="30" file="cross.out"/>
	<inductionLoop id="l3_18" lane="l3_0" pos="1700" freq="30" file="cross.out"/>
	<inductionLoop id="l3_19" lane="l3_0" pos="1800" freq="30" file="cross.out"/>
	<inductionLoop id="l3_20" lane="l3_0" pos="1900" freq="30" file="cross.out"/>
	<inductionLoop id="l3_21" lane="l3_0" pos="2000" freq="30" file="cross.out"/>
	<inductionLoop id="l3_22" lane="l3_0" pos="2100" freq="30" file="cross.out"/>
	<inductionLoop id="l3_23" lane="l3_0" pos="2200" freq="30" file="cross.out"/>
	<inductionLoop id="l3_24" lane="l3_0" pos="2300" freq="30" file="cross.out"/>
	<inductionLoop id="l3_25" lane="l3_0" pos="2400" freq="30" file="cross.out"/>
	<inductionLoop id="l3_26" lane="l3_0" pos="2500" freq="30" file="cross.out"/>
</additional> 
